Title Card Required
 OpenBabel02251922193D
Created by GaussView 5.0.8
 47 50  0  0  0  0  0  0  0  0999 V2000
   -0.5233   -4.7735   -0.0278 C   0  0  0  0  0
   -0.3561   -2.6020    0.8551 C   0  0  0  0  0
   -1.8813   -2.4251    0.7056 C   0  0  0  0  0
   -2.5020   -3.8132    0.8521 C   0  0  0  0  0
   -0.2558   -5.2161    0.9409 H   0  0  0  0  0
   -0.1540   -3.0422    1.8369 H   0  0  0  0  0
   -2.1044   -2.0757   -0.3136 H   0  0  0  0  0
   -2.3444   -4.2235    1.8564 H   0  0  0  0  0
   -3.5848   -3.7612    0.7011 H   0  0  0  0  0
   -1.9479   -4.6838   -0.1278 O   0  0  0  0  0
    0.0944   -3.4887   -0.1601 O   0  0  0  0  0
    0.3613   -1.2329    0.7568 C   0  0  0  0  0
    0.2100   -0.8441   -0.2586 H   0  0  0  0  0
   -0.3103   -0.2831    1.7504 C   0  0  0  0  0
   -0.1322   -0.6237    2.7796 H   0  0  0  0  0
   -1.7903   -0.2148    1.4585 C   0  0  0  0  0
   -2.4238   -1.4781    1.6467 O   0  0  0  0  0
   -2.2713    0.8521    2.2351 O   0  0  0  0  0
    0.0325    1.0876    1.6648 O   0  0  0  0  0
   -1.1480    1.7173    2.1679 C   0  0  0  0  0
   -1.4041    2.5728    1.5292 H   0  0  0  0  0
    1.7866   -1.2948    0.8731 O   0  0  0  0  0
    2.3596   -1.5975    2.1364 C   0  0  0  0  0
    3.4487   -1.5112    2.0499 H   0  0  0  0  0
    2.0509   -0.8548    2.8771 H   0  0  0  0  0
    2.0050   -2.8861    2.6118 O   0  0  0  0  0
    2.7491   -3.9065    1.9474 C   0  0  0  0  0
    3.8038   -3.8479    2.2304 H   0  0  0  0  0
    2.3556   -4.8753    2.2648 H   0  0  0  0  0
    2.6464   -3.8277    0.8617 H   0  0  0  0  0
   -0.0030   -5.6366   -1.1523 C   0  0  0  0  0
   -0.3176   -5.3389   -2.4890 C   0  0  0  0  0
    0.8320   -6.7336   -0.8866 C   0  0  0  0  0
    0.1856   -6.1189   -3.5309 C   0  0  0  0  0
   -0.9571   -4.4906   -2.7187 H   0  0  0  0  0
    1.3338   -7.5132   -1.9311 C   0  0  0  0  0
    1.1012   -6.9906    0.1352 H   0  0  0  0  0
    1.0108   -7.2055   -3.2516 C   0  0  0  0  0
   -0.0652   -5.8780   -4.5607 H   0  0  0  0  0
    1.9787   -8.3617   -1.7166 H   0  0  0  0  0
    1.4030   -7.8130   -4.0633 H   0  0  0  0  0
   -1.9574    0.0924    0.4123 H   0  0  0  0  0
   -3.4772    1.0436    2.8486 C   0  0  0  0  0
   -3.5301    0.3780    3.7181 H   0  0  0  0  0
   -3.6085    2.0738    3.1837 H   0  0  0  0  0
   -4.2901    0.7032    2.2007 H   0  0  0  0  0
   -0.9712    2.1650    3.1540 H   0  0  0  0  0
  1  5  1  0  0  0
  1 10  1  0  0  0
  1 11  1  0  0  0
  1 31  1  0  0  0
  2  3  1  0  0  0
  2  6  1  0  0  0
  2 11  1  0  0  0
  2 12  1  0  0  0
  3  4  1  0  0  0
  3  7  1  0  0  0
  3 17  1  0  0  0
  4  9  1  0  0  0
  4  8  1  0  0  0
  4 10  1  0  0  0
 12 13  1  0  0  0
 12 14  1  0  0  0
 12 22  1  0  0  0
 14 15  1  0  0  0
 14 16  1  0  0  0
 14 19  1  0  0  0
 16 17  1  0  0  0
 16 18  1  0  0  0
 16 42  1  0  0  0
 18 20  1  0  0  0
 18 43  1  0  0  0
 19 20  1  0  0  0
 20 21  1  0  0  0
 20 47  1  0  0  0
 22 23  1  0  0  0
 23 24  1  0  0  0
 23 25  1  0  0  0
 23 26  1  0  0  0
 26 27  1  0  0  0
 27 28  1  0  0  0
 27 29  1  0  0  0
 27 30  1  0  0  0
 31 32  2  0  0  0
 31 33  1  0  0  0
 32 34  1  0  0  0
 32 35  1  0  0  0
 33 36  2  0  0  0
 33 37  1  0  0  0
 34 38  2  0  0  0
 34 39  1  0  0  0
 36 38  1  0  0  0
 36 40  1  0  0  0
 38 41  1  0  0  0
 43 44  1  0  0  0
 43 45  1  0  0  0
 43 46  1  0  0  0
M  END
